
This summary information was generated by AeroDyn on 19-Jul-2026 at 01:58:48.

======  General Options  ============================================================================
            0  WakeMod        - Type of wake/induction model: steady
            1  AFAeroMod      - Type of blade airfoil aerodynamics model: steady
            0  TwrPotent      - Type of tower influence on wind based on potential flow around the tower: none
            0  TwrShadow      - Type of tower influence on wind based on downstream tower shadow: none
            F  TwrAero        - Calculate tower aerodynamic loads? No
            F  CavitCheck     - Perform cavitation check? No
            F  Buoyancy       - Include buoyancy effects? No
======  Outputs  ====================================================================================
            0  NBlOuts        - Number of blade nodes selected for output
            0  NTwOuts        - Number of tower nodes selected for output

               Requested Output Channels:
                Col   Parameter            Units               
                ---   ---------------      ---------------     
                  0   Time                 (s)                 
                  1   RtAeroFxh            (N)                 
                  2   RtAeroFyh            (N)                 
                  3   RtAeroFzh            (N)                 
                  4   RtAeroMxh            (N-m)               
                  5   RtAeroMyh            (N-m)               
                  6   RtAeroMzh            (N-m)               
                  7   RtAeroPwr            (W)                 
                  8   RtArea               (m^2)               


               Requested Output Channels at each blade station:
                Col   Parameter            Units               
                ---   ---------------      ---------------     
                  1   Alpha                (deg)               
                  2   Cl                   (-)                 
                  3   Cd                   (-)                 
                  4   Vrel                 (m/s)               
                  5   Fx                   (N/m)               
                  6   Fy                   (N/m)               
                  7   DynP                 (Pa)                
                  8   Theta                (deg)               


Buoyancy parameters:

Hub volume (m^3):           0.000
Nacelle volume (m^3):       0.000
Total blade volume (m^3):   0.000
Tower volume (m^3):         0.000
