
This summary information was generated by ElastoDyn on 19-Jul-2026 at 01:58:48.


Turbine features:

            Upwind, 3-bladed rotor with rigid hub.
            The model has 0 of 24 DOFs active (enabled) at start-up.
 Disabled   Platform horizontal surge translation DOF 
 Disabled   Platform horizontal sway translation DOF 
 Disabled   Platform vertical heave translation DOF 
 Disabled   Platform roll tilt rotation DOF 
 Disabled   Platform pitch tilt rotation DOF 
 Disabled   Platform yaw rotation DOF 
 Disabled   1st tower fore-aft bending mode DOF 
 Disabled   1st tower side-to-side bending mode DOF 
 Disabled   2nd tower fore-aft bending mode DOF 
 Disabled   2nd tower side-to-side bending mode DOF 
 Disabled   Nacelle yaw DOF 
 Disabled   Rotor-furl DOF 
 Disabled   Variable speed generator DOF 
 Disabled   Drivetrain rotational-flexibility DOF 
 Disabled   Tail-furl DOF 
 Disabled   1st flapwise bending-mode DOF of blade 1 
 Disabled   1st edgewise bending-mode DOF of blade 1 
 Disabled   2nd flapwise bending-mode DOF of blade 1 
 Disabled   1st flapwise bending-mode DOF of blade 2 
 Disabled   1st edgewise bending-mode DOF of blade 2 
 Disabled   2nd flapwise bending-mode DOF of blade 2 
 Disabled   1st flapwise bending-mode DOF of blade 3 
 Disabled   1st edgewise bending-mode DOF of blade 3 
 Disabled   2nd flapwise bending-mode DOF of blade 3 


Time steps:

    Structural            (s)        0.03125000


Some calculated parameters:

    Hub-Height            (m)            90.000
    Flexible Tower Length (m)            88.037
    Flexible Blade Length (m)            61.500


Rotor mass properties:

    Rotor Mass            (kg)       109599.792
    Rotor Inertia         (kg-m^2) 38556227.659
                                        Blade 1      Blade 2      Blade 3
                                        -------      -------      -------
    Mass                  (kg)        17606.597    17606.597    17606.597
    Second Mass Moment    (kg-m^2) 11689972.850 11689972.850 11689972.850
    First Mass Moment     (kg-m)     361282.064   361282.064   361282.064
    Center of Mass        (m)            20.520       20.520       20.520


Additional mass properties:

    Tower-top Mass        (kg)       349599.792
    Tower Mass            (kg)       349195.312
    Platform Mass         (kg)            0.000
    Mass Incl. Platform   (kg)       698795.104


Interpolated tower properties:

Node  TwFract   HNodes  DHNodes  TMassDen    FAStiff    SSStiff
 (-)      (-)      (m)      (m)    (kg/m)     (Nm^2)     (Nm^2)
   1    0.025    2.201    4.402  5501.260  5.945E+11  5.945E+11
   2    0.075    6.603    4.402  5322.040  5.547E+11  5.547E+11
   3    0.125   11.005    4.402  5145.763  5.169E+11  5.169E+11
   4    0.175   15.407    4.402  4972.427  4.812E+11  4.812E+11
   5    0.225   19.808    4.402  4802.038  4.472E+11  4.472E+11
   6    0.275   24.210    4.402  4634.592  4.152E+11  4.152E+11
   7    0.325   28.612    4.402  4470.090  3.848E+11  3.848E+11
   8    0.375   33.014    4.402  4308.530  3.562E+11  3.562E+11
   9    0.425   37.416    4.402  4149.915  3.292E+11  3.292E+11
  10    0.475   41.818    4.402  3994.245  3.037E+11  3.037E+11
  11    0.525   46.220    4.402  3841.515  2.798E+11  2.798E+11
  12    0.575   50.622    4.402  3691.725  2.573E+11  2.573E+11
  13    0.625   55.023    4.402  3544.880  2.361E+11  2.361E+11
  14    0.675   59.425    4.402  3400.980  2.163E+11  2.163E+11
  15    0.725   63.827    4.402  3260.025  1.978E+11  1.978E+11
  16    0.775   68.229    4.402  3122.015  1.805E+11  1.805E+11
  17    0.825   72.631    4.402  2986.945  1.643E+11  1.643E+11
  18    0.875   77.033    4.402  2854.815  1.493E+11  1.493E+11
  19    0.925   81.435    4.402  2725.630  1.353E+11  1.353E+11
  20    0.975   85.837    4.402  2599.390  1.223E+11  1.223E+11


Interpolated blade 1 properties:

Node  BlFract   RNodes  DRNodes PitchAxis  StrcTwst  BMassDen    FlpStff    EdgStff
 (-)      (-)      (m)      (m)       (-)     (deg)    (kg/m)     (Nm^2)     (Nm^2)
   1    0.008    1.996    0.992     0.250    13.308   738.959  1.850E+10  1.854E+10
   2    0.024    2.988    0.992     0.252    13.308   798.563  1.886E+10  1.954E+10
   3    0.040    3.980    0.992     0.258    13.308   773.993  1.685E+10  1.958E+10
   4    0.056    4.972    0.992     0.270    13.308   731.668  1.406E+10  1.845E+10
   5    0.073    5.964    0.992     0.283    13.308   580.140  9.845E+09  1.363E+10
   6    0.089    6.956    0.992     0.295    13.308   463.687  6.994E+09  9.945E+09
   7    0.105    7.948    0.992     0.307    13.308   437.224  6.116E+09  8.877E+09
   8    0.121    8.940    0.992     0.319    13.308   414.162  5.397E+09  7.781E+09
   9    0.137    9.931    0.992     0.331    13.308   403.635  4.970E+09  6.913E+09
  10    0.153   10.923    0.992     0.343    13.308   424.016  4.882E+09  7.045E+09
  11    0.169   11.915    0.992     0.356    13.281   443.518  4.532E+09  7.190E+09
  12    0.185   12.907    0.992     0.367    13.112   433.420  3.833E+09  7.232E+09
  13    0.202   13.899    0.992     0.375    12.717   419.454  3.296E+09  6.915E+09
  14    0.218   14.891    0.992     0.375    12.072   393.029  2.864E+09  6.017E+09
  15    0.234   15.883    0.992     0.375    11.471   368.185  2.536E+09  5.031E+09
  16    0.250   16.875    0.992     0.375    11.023   364.791  2.368E+09  4.924E+09
  17    0.266   17.867    0.992     0.375    10.745   361.628  2.253E+09  4.782E+09
  18    0.282   18.859    0.992     0.375    10.468   357.894  2.143E+09  4.630E+09
  19    0.298   19.851    0.992     0.375    10.190   353.994  2.033E+09  4.482E+09
  20    0.315   20.843    0.992     0.375     9.912   349.156  1.923E+09  4.354E+09
  21    0.331   21.835    0.992     0.375     9.634   344.410  1.812E+09  4.227E+09
  22    0.347   22.827    0.992     0.375     9.356   340.255  1.693E+09  4.104E+09
  23    0.363   23.819    0.992     0.375     9.076   336.090  1.575E+09  3.981E+09
  24    0.379   24.810    0.992     0.375     8.790   331.854  1.463E+09  3.860E+09
  25    0.395   25.802    0.992     0.375     8.503   327.036  1.349E+09  3.735E+09
  26    0.411   26.794    0.992     0.375     8.205   317.140  1.220E+09  3.585E+09
  27    0.427   27.786    0.992     0.375     7.906   307.761  1.093E+09  3.434E+09
  28    0.444   28.778    0.992     0.375     7.603   303.814  9.803E+08  3.281E+09
  29    0.460   29.770    0.992     0.375     7.300   299.282  8.691E+08  3.125E+09
  30    0.476   30.762    0.992     0.375     6.997   286.950  7.726E+08  2.924E+09
  31    0.492   31.754    0.992     0.375     6.695   275.003  6.774E+08  2.729E+09
  32    0.508   32.746    0.992     0.375     6.403   269.748  6.047E+08  2.640E+09
  33    0.524   33.738    0.992     0.375     6.111   264.465  5.323E+08  2.551E+09
  34    0.540   34.730    0.992     0.375     5.825   258.481  4.699E+08  2.441E+09
  35    0.556   35.722    0.992     0.375     5.540   252.390  4.079E+08  2.329E+09
  36    0.573   36.714    0.992     0.375     5.255   241.488  3.611E+08  2.078E+09
  37    0.589   37.706    0.992     0.375     4.969   230.588  3.143E+08  1.828E+09
  38    0.605   38.698    0.992     0.375     4.687   220.042  2.767E+08  1.707E+09
  39    0.621   39.690    0.992     0.375     4.404   209.497  2.391E+08  1.585E+09
  40    0.637   40.681    0.992     0.375     4.123   198.667  2.078E+08  1.456E+09
  41    0.653   41.673    0.992     0.375     3.842   187.833  1.767E+08  1.327E+09
  42    0.669   42.665    0.992     0.375     3.592   180.322  1.518E+08  1.256E+09
  43    0.685   43.657    0.992     0.375     3.343   172.903  1.271E+08  1.187E+09
  44    0.702   44.649    0.992     0.375     3.122   167.283  1.171E+08  1.106E+09
  45    0.718   45.641    0.992     0.375     2.903   161.744  1.078E+08  1.025E+09
  46    0.734   46.633    0.992     0.375     2.709   153.868  9.962E+07  9.164E+08
  47    0.750   47.625    0.992     0.375     2.518   145.844  9.149E+07  8.062E+08
  48    0.766   48.617    0.992     0.375     2.326   140.744  8.420E+07  7.574E+08
  49    0.782   49.609    0.992     0.375     2.134   135.884  7.698E+07  7.137E+08
  50    0.798   50.601    0.992     0.375     1.942   124.944  6.944E+07  6.235E+08
  51    0.815   51.593    0.992     0.375     1.751   113.380  6.187E+07  5.285E+08
  52    0.831   52.585    0.992     0.375     1.558   108.205  5.593E+07  4.902E+08
  53    0.847   53.577    0.992     0.375     1.366   103.804  5.019E+07  4.588E+08
  54    0.863   54.569    0.992     0.375     1.173    99.385  4.508E+07  4.289E+08
  55    0.879   55.560    0.992     0.375     0.981    94.963  4.007E+07  3.993E+08
  56    0.895   56.552    0.992     0.375     0.789    87.884  3.536E+07  3.598E+08
  57    0.911   57.544    0.992     0.375     0.603    77.855  3.107E+07  3.124E+08
  58    0.927   58.536    0.992     0.375     0.432    72.599  2.716E+07  2.852E+08
  59    0.944   59.528    0.992     0.375     0.276    64.529  2.108E+07  1.943E+08
  60    0.960   60.520    0.992     0.375     0.192    56.154  1.397E+07  1.257E+08
  61    0.976   61.512    0.992     0.375     0.116    49.190  8.500E+06  9.129E+07
  62    0.992   62.504    0.992     0.375     0.038    24.345  1.954E+06  2.919E+07


Interpolated blade 2 properties:

Node  BlFract   RNodes  DRNodes PitchAxis  StrcTwst  BMassDen    FlpStff    EdgStff
 (-)      (-)      (m)      (m)       (-)     (deg)    (kg/m)     (Nm^2)     (Nm^2)
   1    0.008    1.996    0.992     0.250    13.308   738.959  1.850E+10  1.854E+10
   2    0.024    2.988    0.992     0.252    13.308   798.563  1.886E+10  1.954E+10
   3    0.040    3.980    0.992     0.258    13.308   773.993  1.685E+10  1.958E+10
   4    0.056    4.972    0.992     0.270    13.308   731.668  1.406E+10  1.845E+10
   5    0.073    5.964    0.992     0.283    13.308   580.140  9.845E+09  1.363E+10
   6    0.089    6.956    0.992     0.295    13.308   463.687  6.994E+09  9.945E+09
   7    0.105    7.948    0.992     0.307    13.308   437.224  6.116E+09  8.877E+09
   8    0.121    8.940    0.992     0.319    13.308   414.162  5.397E+09  7.781E+09
   9    0.137    9.931    0.992     0.331    13.308   403.635  4.970E+09  6.913E+09
  10    0.153   10.923    0.992     0.343    13.308   424.016  4.882E+09  7.045E+09
  11    0.169   11.915    0.992     0.356    13.281   443.518  4.532E+09  7.190E+09
  12    0.185   12.907    0.992     0.367    13.112   433.420  3.833E+09  7.232E+09
  13    0.202   13.899    0.992     0.375    12.717   419.454  3.296E+09  6.915E+09
  14    0.218   14.891    0.992     0.375    12.072   393.029  2.864E+09  6.017E+09
  15    0.234   15.883    0.992     0.375    11.471   368.185  2.536E+09  5.031E+09
  16    0.250   16.875    0.992     0.375    11.023   364.791  2.368E+09  4.924E+09
  17    0.266   17.867    0.992     0.375    10.745   361.628  2.253E+09  4.782E+09
  18    0.282   18.859    0.992     0.375    10.468   357.894  2.143E+09  4.630E+09
  19    0.298   19.851    0.992     0.375    10.190   353.994  2.033E+09  4.482E+09
  20    0.315   20.843    0.992     0.375     9.912   349.156  1.923E+09  4.354E+09
  21    0.331   21.835    0.992     0.375     9.634   344.410  1.812E+09  4.227E+09
  22    0.347   22.827    0.992     0.375     9.356   340.255  1.693E+09  4.104E+09
  23    0.363   23.819    0.992     0.375     9.076   336.090  1.575E+09  3.981E+09
  24    0.379   24.810    0.992     0.375     8.790   331.854  1.463E+09  3.860E+09
  25    0.395   25.802    0.992     0.375     8.503   327.036  1.349E+09  3.735E+09
  26    0.411   26.794    0.992     0.375     8.205   317.140  1.220E+09  3.585E+09
  27    0.427   27.786    0.992     0.375     7.906   307.761  1.093E+09  3.434E+09
  28    0.444   28.778    0.992     0.375     7.603   303.814  9.803E+08  3.281E+09
  29    0.460   29.770    0.992     0.375     7.300   299.282  8.691E+08  3.125E+09
  30    0.476   30.762    0.992     0.375     6.997   286.950  7.726E+08  2.924E+09
  31    0.492   31.754    0.992     0.375     6.695   275.003  6.774E+08  2.729E+09
  32    0.508   32.746    0.992     0.375     6.403   269.748  6.047E+08  2.640E+09
  33    0.524   33.738    0.992     0.375     6.111   264.465  5.323E+08  2.551E+09
  34    0.540   34.730    0.992     0.375     5.825   258.481  4.699E+08  2.441E+09
  35    0.556   35.722    0.992     0.375     5.540   252.390  4.079E+08  2.329E+09
  36    0.573   36.714    0.992     0.375     5.255   241.488  3.611E+08  2.078E+09
  37    0.589   37.706    0.992     0.375     4.969   230.588  3.143E+08  1.828E+09
  38    0.605   38.698    0.992     0.375     4.687   220.042  2.767E+08  1.707E+09
  39    0.621   39.690    0.992     0.375     4.404   209.497  2.391E+08  1.585E+09
  40    0.637   40.681    0.992     0.375     4.123   198.667  2.078E+08  1.456E+09
  41    0.653   41.673    0.992     0.375     3.842   187.833  1.767E+08  1.327E+09
  42    0.669   42.665    0.992     0.375     3.592   180.322  1.518E+08  1.256E+09
  43    0.685   43.657    0.992     0.375     3.343   172.903  1.271E+08  1.187E+09
  44    0.702   44.649    0.992     0.375     3.122   167.283  1.171E+08  1.106E+09
  45    0.718   45.641    0.992     0.375     2.903   161.744  1.078E+08  1.025E+09
  46    0.734   46.633    0.992     0.375     2.709   153.868  9.962E+07  9.164E+08
  47    0.750   47.625    0.992     0.375     2.518   145.844  9.149E+07  8.062E+08
  48    0.766   48.617    0.992     0.375     2.326   140.744  8.420E+07  7.574E+08
  49    0.782   49.609    0.992     0.375     2.134   135.884  7.698E+07  7.137E+08
  50    0.798   50.601    0.992     0.375     1.942   124.944  6.944E+07  6.235E+08
  51    0.815   51.593    0.992     0.375     1.751   113.380  6.187E+07  5.285E+08
  52    0.831   52.585    0.992     0.375     1.558   108.205  5.593E+07  4.902E+08
  53    0.847   53.577    0.992     0.375     1.366   103.804  5.019E+07  4.588E+08
  54    0.863   54.569    0.992     0.375     1.173    99.385  4.508E+07  4.289E+08
  55    0.879   55.560    0.992     0.375     0.981    94.963  4.007E+07  3.993E+08
  56    0.895   56.552    0.992     0.375     0.789    87.884  3.536E+07  3.598E+08
  57    0.911   57.544    0.992     0.375     0.603    77.855  3.107E+07  3.124E+08
  58    0.927   58.536    0.992     0.375     0.432    72.599  2.716E+07  2.852E+08
  59    0.944   59.528    0.992     0.375     0.276    64.529  2.108E+07  1.943E+08
  60    0.960   60.520    0.992     0.375     0.192    56.154  1.397E+07  1.257E+08
  61    0.976   61.512    0.992     0.375     0.116    49.190  8.500E+06  9.129E+07
  62    0.992   62.504    0.992     0.375     0.038    24.345  1.954E+06  2.919E+07


Interpolated blade 3 properties:

Node  BlFract   RNodes  DRNodes PitchAxis  StrcTwst  BMassDen    FlpStff    EdgStff
 (-)      (-)      (m)      (m)       (-)     (deg)    (kg/m)     (Nm^2)     (Nm^2)
   1    0.008    1.996    0.992     0.250    13.308   738.959  1.850E+10  1.854E+10
   2    0.024    2.988    0.992     0.252    13.308   798.563  1.886E+10  1.954E+10
   3    0.040    3.980    0.992     0.258    13.308   773.993  1.685E+10  1.958E+10
   4    0.056    4.972    0.992     0.270    13.308   731.668  1.406E+10  1.845E+10
   5    0.073    5.964    0.992     0.283    13.308   580.140  9.845E+09  1.363E+10
   6    0.089    6.956    0.992     0.295    13.308   463.687  6.994E+09  9.945E+09
   7    0.105    7.948    0.992     0.307    13.308   437.224  6.116E+09  8.877E+09
   8    0.121    8.940    0.992     0.319    13.308   414.162  5.397E+09  7.781E+09
   9    0.137    9.931    0.992     0.331    13.308   403.635  4.970E+09  6.913E+09
  10    0.153   10.923    0.992     0.343    13.308   424.016  4.882E+09  7.045E+09
  11    0.169   11.915    0.992     0.356    13.281   443.518  4.532E+09  7.190E+09
  12    0.185   12.907    0.992     0.367    13.112   433.420  3.833E+09  7.232E+09
  13    0.202   13.899    0.992     0.375    12.717   419.454  3.296E+09  6.915E+09
  14    0.218   14.891    0.992     0.375    12.072   393.029  2.864E+09  6.017E+09
  15    0.234   15.883    0.992     0.375    11.471   368.185  2.536E+09  5.031E+09
  16    0.250   16.875    0.992     0.375    11.023   364.791  2.368E+09  4.924E+09
  17    0.266   17.867    0.992     0.375    10.745   361.628  2.253E+09  4.782E+09
  18    0.282   18.859    0.992     0.375    10.468   357.894  2.143E+09  4.630E+09
  19    0.298   19.851    0.992     0.375    10.190   353.994  2.033E+09  4.482E+09
  20    0.315   20.843    0.992     0.375     9.912   349.156  1.923E+09  4.354E+09
  21    0.331   21.835    0.992     0.375     9.634   344.410  1.812E+09  4.227E+09
  22    0.347   22.827    0.992     0.375     9.356   340.255  1.693E+09  4.104E+09
  23    0.363   23.819    0.992     0.375     9.076   336.090  1.575E+09  3.981E+09
  24    0.379   24.810    0.992     0.375     8.790   331.854  1.463E+09  3.860E+09
  25    0.395   25.802    0.992     0.375     8.503   327.036  1.349E+09  3.735E+09
  26    0.411   26.794    0.992     0.375     8.205   317.140  1.220E+09  3.585E+09
  27    0.427   27.786    0.992     0.375     7.906   307.761  1.093E+09  3.434E+09
  28    0.444   28.778    0.992     0.375     7.603   303.814  9.803E+08  3.281E+09
  29    0.460   29.770    0.992     0.375     7.300   299.282  8.691E+08  3.125E+09
  30    0.476   30.762    0.992     0.375     6.997   286.950  7.726E+08  2.924E+09
  31    0.492   31.754    0.992     0.375     6.695   275.003  6.774E+08  2.729E+09
  32    0.508   32.746    0.992     0.375     6.403   269.748  6.047E+08  2.640E+09
  33    0.524   33.738    0.992     0.375     6.111   264.465  5.323E+08  2.551E+09
  34    0.540   34.730    0.992     0.375     5.825   258.481  4.699E+08  2.441E+09
  35    0.556   35.722    0.992     0.375     5.540   252.390  4.079E+08  2.329E+09
  36    0.573   36.714    0.992     0.375     5.255   241.488  3.611E+08  2.078E+09
  37    0.589   37.706    0.992     0.375     4.969   230.588  3.143E+08  1.828E+09
  38    0.605   38.698    0.992     0.375     4.687   220.042  2.767E+08  1.707E+09
  39    0.621   39.690    0.992     0.375     4.404   209.497  2.391E+08  1.585E+09
  40    0.637   40.681    0.992     0.375     4.123   198.667  2.078E+08  1.456E+09
  41    0.653   41.673    0.992     0.375     3.842   187.833  1.767E+08  1.327E+09
  42    0.669   42.665    0.992     0.375     3.592   180.322  1.518E+08  1.256E+09
  43    0.685   43.657    0.992     0.375     3.343   172.903  1.271E+08  1.187E+09
  44    0.702   44.649    0.992     0.375     3.122   167.283  1.171E+08  1.106E+09
  45    0.718   45.641    0.992     0.375     2.903   161.744  1.078E+08  1.025E+09
  46    0.734   46.633    0.992     0.375     2.709   153.868  9.962E+07  9.164E+08
  47    0.750   47.625    0.992     0.375     2.518   145.844  9.149E+07  8.062E+08
  48    0.766   48.617    0.992     0.375     2.326   140.744  8.420E+07  7.574E+08
  49    0.782   49.609    0.992     0.375     2.134   135.884  7.698E+07  7.137E+08
  50    0.798   50.601    0.992     0.375     1.942   124.944  6.944E+07  6.235E+08
  51    0.815   51.593    0.992     0.375     1.751   113.380  6.187E+07  5.285E+08
  52    0.831   52.585    0.992     0.375     1.558   108.205  5.593E+07  4.902E+08
  53    0.847   53.577    0.992     0.375     1.366   103.804  5.019E+07  4.588E+08
  54    0.863   54.569    0.992     0.375     1.173    99.385  4.508E+07  4.289E+08
  55    0.879   55.560    0.992     0.375     0.981    94.963  4.007E+07  3.993E+08
  56    0.895   56.552    0.992     0.375     0.789    87.884  3.536E+07  3.598E+08
  57    0.911   57.544    0.992     0.375     0.603    77.855  3.107E+07  3.124E+08
  58    0.927   58.536    0.992     0.375     0.432    72.599  2.716E+07  2.852E+08
  59    0.944   59.528    0.992     0.375     0.276    64.529  2.108E+07  1.943E+08
  60    0.960   60.520    0.992     0.375     0.192    56.154  1.397E+07  1.257E+08
  61    0.976   61.512    0.992     0.375     0.116    49.190  8.500E+06  9.129E+07
  62    0.992   62.504    0.992     0.375     0.038    24.345  1.954E+06  2.919E+07


Requested Outputs:


 Col   Parameter            Units               
 ---   ---------------      ---------------     
   0   Time                 (s)                 
   1   RotThrust            (kN)                
   2   RotTorq              (kN-m)              
   3   RotPwr               (kW)                
   4   BldPitch1            (deg)               
   5   Azimuth              (deg)               
   6   YawPos               (deg)               
   7   RotSpeed             (rpm)               
   8   GenSpeed             (rpm)               
   9   OoPDefl1             (m)                 
  10   IPDefl1              (m)                 
  11   TwstDefl1            (deg)               
  12   TTDspFA              (m)                 
  13   TTDspSS              (m)                 
  14   TTDspTwst            (deg)               
  15   Spn2MLxb1            (kN-m)              
  16   Spn2MLyb1            (kN-m)              
  17   RootFxc1             (kN)                
  18   RootFyc1             (kN)                
  19   RootFzc1             (kN)                
  20   RootMxc1             (kN-m)              
  21   RootMyc1             (kN-m)              
  22   RootMzc1             (kN-m)              
  23   RootMxb1             (kN-m)              
  24   RootMyb1             (kN-m)              
  25   RotTorq              (kN-m)              
  26   LSSGagMya            (kN-m)              
  27   LSSGagMza            (kN-m)              
  28   YawBrFxp             (kN)                
  29   YawBrFyp             (kN)                
  30   YawBrFzp             (kN)                
  31   YawBrMxp             (kN-m)              
  32   YawBrMyp             (kN-m)              
  33   YawBrMzp             (kN-m)              
  34   TwrBsFxt             (kN)                
  35   TwrBsFyt             (kN)                
  36   TwrBsFzt             (kN)                
  37   TwrBsMxt             (kN-m)              
  38   TwrBsMyt             (kN-m)              
  39   TwrBsMzt             (kN-m)              


  Requested Output Channels at each blade station:
 Col   Parameter            Units               
 ---   ---------------      ---------------     
